<?xml version="1.0" encoding="UTF-8"?>

<!-- generated on 2024-09-05 22:12:59.513911 by randomTrips.py v1_18_0+0000-03ecfdea036
<configuration>
    <net-file value="grid/grid.net.xml"/>
    <route-file value="grid/grid.rou.xml"/>
    <fringe-factor value="15"/>
    <min-distance value="1700.0"/>
    <validate value="True"/>
    <period value="0.7659574468085106"/>
</configuration>
-->

<!-- generated on 2024-09-05 22:12:59 by Eclipse SUMO duarouter Version 1.18.0
<configuration xmlns:xsi="http://www.w3.org/2001/XMLSchema-instance" xsi:noNamespaceSchemaLocation="http://sumo.dlr.de/xsd/duarouterConfiguration.xsd">

    <input>
        <net-file value="grid/grid.net.xml"/>
        <route-files value="trips.trips.xml"/>
    </input>

    <output>
        <output-file value="grid/grid.rou.xml"/>
        <alternatives-output value="NUL"/>
    </output>

    <time>
        <begin value="0.0"/>
        <end value="3600.0"/>
    </time>

    <report>
        <no-warnings value="true"/>
        <ignore-errors value="true"/>
        <no-step-log value="true"/>
    </report>

</configuration>
-->

<routes xmlns:xsi="http://www.w3.org/2001/XMLSchema-instance" xsi:noNamespaceSchemaLocation="http://sumo.dlr.de/xsd/routes_file.xsd">
    <vehicle id="0" depart="0.00">
        <route edges="I7H7 H7H6 H6H5 H5H4 H4H3 H3H2 H2H1 H1G1 G1F1 F1E1 E1D1 D1C1 C1B1 B1A1"/>
    </vehicle>
    <vehicle id="1" depart="0.77">
        <route edges="H9G9 G9F9 F9E9 E9D9 D9C9 C9B9 B9A9 A9A8 A8A7 A7A6 A6A5 A5A4 A4A3 A3A2 A2A1 A1A0"/>
    </vehicle>
    <vehicle id="2" depart="1.53">
        <route edges="B8B9 B9C9 C9D9 D9E9 E9F9 F9G9 G9H9 H9H8 H8H7 H7H6 H6H5 H5H4 H4H3 H3H2 H2H1 H1I1"/>
    </vehicle>
    <vehicle id="3" depart="2.30">
        <route edges="J9J8 J8J7 J7J6 J6J5 J5J4 J4J3 J3J2 J2J1 J1I1 I1H1 H1G1 G1F1 F1E1"/>
    </vehicle>
    <vehicle id="4" depart="3.06">
        <route edges="F0E0 E0D0 D0C0 C0B0 B0B1 B1B2 B2B3 B3B4 B4B5 B5B6 B6B7 B7B8 B8B9 B9B8"/>
    </vehicle>
    <vehicle id="5" depart="3.83">
        <route edges="G0G1 G1G2 G2G3 G3G4 G4G5 G5G6 G6G7 G7F7 F7E7 E7D7 D7C7 C7B7 B7A7"/>
    </vehicle>
    <vehicle id="6" depart="4.60">
        <route edges="H8I8 I8I7 I7I6 I6I5 I5I4 I4I3 I3I2 I2I1 I1I0 I0H0 H0G0 G0F0 F0E0 E0D0 D0C0 C0D0"/>
    </vehicle>
    <vehicle id="7" depart="5.36">
        <route edges="J7J8 J8J7 J7J6 J6J5 J5J4 J4J3 J3J2 J2I2 I2H2 H2G2 G2F2 F2E2 E2D2 D2C2 C2B2 B2A2"/>
    </vehicle>
    <vehicle id="8" depart="6.13">
        <route edges="I3H3 H3G3 G3F3 F3F4 F4F5 F5F6 F6F7 F7F8 F8E8 E8D8 D8C8 C8B8 B8A8"/>
    </vehicle>
    <vehicle id="9" depart="6.89">
        <route edges="E0F0 F0E0 E0D0 D0C0 C0B0 B0A0 A0A1 A1A2 A2A3 A3A4 A4A5 A5A6 A6A7 A7A8"/>
    </vehicle>
    <vehicle id="10" depart="7.66">
        <route edges="C7C8 C8D8 D8E8 E8F8 F8G8 G8H8 H8I8 I8J8 J8J7 J7J6 J6J5 J5J4 J4J3 J3J2 J2J1 J1J0"/>
    </vehicle>
    <vehicle id="11" depart="8.43">
        <route edges="I1J1 J1J2 J2J3 J3J4 J4J5 J5J6 J6J7 J7J8 J8J9 J9I9 I9H9 H9G9 G9F9"/>
    </vehicle>
    <vehicle id="12" depart="9.19">
        <route edges="A0B0 B0C0 C0D0 D0E0 E0F0 F0G0 G0H0 H0H1 H1H2 H2H3 H3H4 H4H5 H5H6"/>
    </vehicle>
    <vehicle id="13" depart="9.96">
        <route edges="D1E1 E1F1 F1G1 G1H1 H1I1 I1I2 I2I3 I3I4 I4I5 I5I6 I6I7 I7I8"/>
    </vehicle>
    <vehicle id="14" depart="10.72">
        <route edges="B7A7 A7B7 B7C7 C7D7 D7E7 E7F7 F7G7 G7H7 H7I7 I7J7 J7J6 J6J5 J5J4 J4J3 J3J2 J2J1 J1I1"/>
    </vehicle>
    <vehicle id="15" depart="11.49">
        <route edges="A0A1 A1A0 A0B0 B0C0 C0D0 D0E0 E0F0 F0G0 G0H0 H0I0 I0J0 J0J1"/>
    </vehicle>
    <vehicle id="16" depart="12.26">
        <route edges="A0A1 A1A2 A2A3 A3A4 A4A5 A5A6 A6A7 A7A8 A8A9 A9B9 B9C9 C9D9"/>
    </vehicle>
    <vehicle id="17" depart="13.02">
        <route edges="I3H3 H3H4 H4H5 H5H6 H6H7 H7H8 H8H9 H9G9 G9F9 F9E9 E9D9 D9C9 C9B9 B9A9 A9A8"/>
    </vehicle>
    <vehicle id="18" depart="13.79">
        <route edges="B9A9 A9A8 A8A7 A7A6 A6A5 A5A4 A4B4 B4C4 C4D4 D4E4 E4F4 F4G4 G4H4 H4I4 I4J4 J4J3"/>
    </vehicle>
    <vehicle id="19" depart="14.55">
        <route edges="D8D7 D7C7 C7B7 B7A7 A7A6 A6A5 A5A4 A4A3 A3A2 A2A1 A1A0"/>
    </vehicle>
    <vehicle id="20" depart="15.32">
        <route edges="B8B7 B7B6 B6B5 B5B4 B4B3 B3B2 B2B1 B1B0 B0C0 C0D0 D0E0 E0F0 F0G0 G0F0"/>
    </vehicle>
    <vehicle id="21" depart="16.09">
        <route edges="H0H1 H1H2 H2H3 H3H4 H4H5 H5H6 H6H7 H7H8 H8G8 G8F8 F8E8 E8D8 D8C8 C8B8 B8A8 A8A9 A9B9"/>
    </vehicle>
    <vehicle id="22" depart="16.85">
        <route edges="B4A4 A4B4 B4C4 C4D4 D4E4 E4F4 F4G4 G4H4 H4I4 I4J4 J4J5 J5J6 J6J7 J7J8"/>
    </vehicle>
    <vehicle id="23" depart="17.62">
        <route edges="B2B3 B3B4 B4C4 C4D4 D4E4 E4F4 F4G4 G4H4 H4I4 I4J4 J4J5"/>
    </vehicle>
    <vehicle id="24" depart="18.38">
        <route edges="A1A2 A2A3 A3B3 B3C3 C3D3 D3E3 E3F3 F3G3 G3H3 H3I3 I3J3 J3J2"/>
    </vehicle>
    <vehicle id="25" depart="19.15">
        <route edges="E8E7 E7E6 E6E5 E5E4 E4E3 E3E2 E2E1 E1F1 F1G1 G1H1 H1H0"/>
    </vehicle>
    <vehicle id="26" depart="19.91">
        <route edges="A9A8 A8A7 A7A6 A6A5 A5A4 A4A3 A3A2 A2B2 B2C2 C2D2 D2E2 E2F2 F2G2 G2G1"/>
    </vehicle>
    <vehicle id="27" depart="20.68">
        <route edges="J8J9 J9I9 I9H9 H9G9 G9F9 F9E9 E9D9 D9C9 C9C8 C8C7 C7C6 C6C5 C5C4 C4C3 C3B3 B3C3"/>
    </vehicle>
    <vehicle id="28" depart="21.45">
        <route edges="F8F9 F9F8 F8F7 F7F6 F6F5 F5F4 F4F3 F3F2 F2F1 F1F0 F0E0 E0D0 D0C0"/>
    </vehicle>
    <vehicle id="29" depart="22.21">
        <route edges="I1H1 H1G1 G1F1 F1E1 E1D1 D1C1 C1B1 B1A1 A1A2 A2A3 A3A4 A4A5 A5A6 A6A7 A7A8 A8B8"/>
    </vehicle>
    <vehicle id="30" depart="22.98">
        <route edges="E9D9 D9C9 C9B9 B9B8 B8B7 B7B6 B6B5 B5B4 B4B3 B3B2 B2B1 B1B0 B0A0"/>
    </vehicle>
    <vehicle id="31" depart="23.74">
        <route edges="E9D9 D9C9 C9B9 B9B8 B8B7 B7B6 B6B5 B5B4 B4B3 B3B2 B2B1 B1B0"/>
    </vehicle>
    <vehicle id="32" depart="24.51">
        <route edges="I1I2 I2I3 I3I4 I4I5 I5I6 I6I7 I7I8 I8I9 I9H9 H9G9 G9F9 F9E9 E9F9"/>
    </vehicle>
    <vehicle id="33" depart="25.28">
        <route edges="C8C7 C7C6 C6C5 C5C4 C4C3 C3C2 C2C1 C1D1 D1E1 E1F1 F1G1 G1H1 H1I1 I1J1"/>
    </vehicle>
    <vehicle id="34" depart="26.04">
        <route edges="I9J9 J9J8 J8J7 J7J6 J6J5 J5J4 J4J3 J3J2 J2J1 J1J0 J0I0 I0H0 H0G0 G0F0 F0G0"/>
    </vehicle>
    <vehicle id="35" depart="26.81">
        <route edges="C0C1 C1C2 C2C3 C3C4 C4D4 D4E4 E4F4 F4G4 G4G5 G5G6 G6G7 G7G8 G8G9"/>
    </vehicle>
    <vehicle id="36" depart="27.57">
        <route edges="A1A2 A2B2 B2C2 C2D2 D2E2 E2F2 F2G2 G2H2 H2H3 H3H4 H4H5 H5H6 H6H7 H7H8 H8H9"/>
    </vehicle>
    <vehicle id="37" depart="28.34">
        <route edges="J8J9 J9I9 I9H9 H9G9 G9F9 F9E9 E9D9 D9D8 D8D7 D7D6 D6D5 D5D4 D4D3 D3D2 D2D1 D1D0 D0E0"/>
    </vehicle>
    <vehicle id="38" depart="29.11">
        <route edges="I0J0 J0J1 J1J2 J2J3 J3J4 J4J5 J5J6 J6J7 J7J8 J8I8 I8H8 H8G8 G8F8 F8E8 E8D8"/>
    </vehicle>
    <vehicle id="39" depart="29.87">
        <route edges="I0J0 J0J1 J1J2 J2J3 J3J4 J4J5 J5J6 J6J7 J7I7 I7I8 I8I9"/>
    </vehicle>
    <vehicle id="40" depart="30.64">
        <route edges="B1C1 C1D1 D1E1 E1F1 F1G1 G1H1 H1I1 I1I2 I2I3 I3I4 I4I5 I5I6 I6I7"/>
    </vehicle>
    <vehicle id="41" depart="31.40">
        <route edges="J3J4 J4I4 I4H4 H4G4 G4F4 F4E4 E4D4 D4C4 C4B4 B4A4 A4A3"/>
    </vehicle>
    <vehicle id="42" depart="32.17">
        <route edges="J3I3 I3H3 H3G3 G3F3 F3E3 E3D3 D3C3 C3B3 B3A3 A3A4 A4A5 A5A6"/>
    </vehicle>
    <vehicle id="43" depart="32.94">
        <route edges="J5J4 J4I4 I4H4 H4G4 G4F4 F4E4 E4D4 D4C4 C4B4 B4A4 A4A5 A5A6 A6A7 A7A8"/>
    </vehicle>
    <vehicle id="44" depart="33.70">
        <route edges="F9G9 G9F9 F9E9 E9D9 D9C9 C9B9 B9B8 B8B7 B7B6 B6B5 B5B4 B4B3 B3B2 B2A2"/>
    </vehicle>
    <vehicle id="45" depart="34.47">
        <route edges="J0I0 I0H0 H0G0 G0F0 F0E0 E0D0 D0C0 C0B0 B0A0 A0A1 A1A2 A2A3 A3A4 A4A5 A5A6 A6A7 A7A8 A8A9"/>
    </vehicle>
    <vehicle id="46" depart="35.23">
        <route edges="B7B6 B6B5 B5B4 B4B3 B3B2 B2B1 B1C1 C1D1 D1E1 E1F1 F1G1 G1G0"/>
    </vehicle>
    <vehicle id="47" depart="36.00">
        <route edges="E0D0 D0D1 D1D2 D2D3 D3D4 D4D5 D5D6 D6D7 D7D8 D8D9 D9E9 E9F9 F9E9"/>
    </vehicle>
    <vehicle id="48" depart="36.77">
        <route edges="G9F9 F9F8 F8F7 F7F6 F6F5 F5F4 F4F3 F3F2 F2F1 F1F0 F0E0"/>
    </vehicle>
    <vehicle id="49" depart="37.53">
        <route edges="A8B8 B8C8 C8D8 D8E8 E8F8 F8G8 G8H8 H8I8 I8I7 I7I6 I6I5 I5I4 I4I3"/>
    </vehicle>
    <vehicle id="50" depart="38.30">
        <route edges="I9J9 J9J8 J8J7 J7J6 J6J5 J5J4 J4J3 J3J2 J2J1 J1I1 I1H1 H1G1 G1F1 F1E1 E1D1 D1C1 C1B1 B1A1"/>
    </vehicle>
    <vehicle id="51" depart="39.06">
        <route edges="A7A6 A6A5 A5A4 A4A3 A3A2 A2A1 A1A0 A0B0 B0C0 C0D0 D0E0 E0F0 F0G0"/>
    </vehicle>
    <vehicle id="52" depart="39.83">
        <route edges="A7A6 A6A5 A5A4 A4A3 A3A2 A2A1 A1B1 B1C1 C1D1 D1E1 E1F1 F1G1 G1H1 H1I1 I1I2"/>
    </vehicle>
    <vehicle id="53" depart="40.60">
        <route edges="A9B9 B9C9 C9D9 D9E9 E9F9 F9G9 G9H9 H9I9 I9I8 I8I7 I7I6 I6I5 I5I4 I4I5"/>
    </vehicle>
    <vehicle id="54" depart="41.36">
        <route edges="B2B3 B3C3 C3D3 D3E3 E3F3 F3G3 G3H3 H3I3 I3I4 I4I5 I5I6 I6I7 I7I8"/>
    </vehicle>
    <vehicle id="55" depart="42.13">
        <route edges="F0F1 F1F2 F2F3 F3F4 F4F5 F5F6 F6F7 F7F8 F8E8 E8D8 D8C8 C8B8 B8C8"/>
    </vehicle>
    <vehicle id="56" depart="42.89">
        <route edges="A9B9 B9C9 C9D9 D9E9 E9F9 F9G9 G9H9 H9I9 I9I8 I8I7 I7I6 I6I5 I5I4 I4I3 I3I2 I2I3"/>
    </vehicle>
    <vehicle id="57" depart="43.66">
        <route edges="J6J5 J5I5 I5H5 H5G5 G5F5 F5E5 E5D5 D5C5 C5B5 B5A5 A5A6 A6A7 A7A8 A8A9"/>
    </vehicle>
    <vehicle id="58" depart="44.43">
        <route edges="A5A6 A6B6 B6C6 C6D6 D6E6 E6F6 F6G6 G6H6 H6I6 I6J6 J6J5 J5J4 J4J3 J3J2 J2J1 J1J2"/>
    </vehicle>
    <vehicle id="59" depart="45.19">
        <route edges="E9F9 F9G9 G9H9 H9I9 I9J9 J9J8 J8J7 J7J6 J6J5 J5J4 J4J3 J3J2 J2J1 J1J0 J0I0"/>
    </vehicle>
    <vehicle id="60" depart="45.96">
        <route edges="F9F8 F8F7 F7F6 F6F5 F5F4 F4F3 F3F2 F2F1 F1F0 F0G0 G0H0 H0I0 I0J0"/>
    </vehicle>
    <vehicle id="61" depart="46.72">
        <route edges="J9J8 J8J7 J7J6 J6J5 J5J4 J4J3 J3J2 J2J1 J1J0 J0I0 I0H0 H0I0"/>
    </vehicle>
    <vehicle id="62" depart="47.49">
        <route edges="I0J0 J0J1 J1J2 J2J3 J3J4 J4J5 J5J6 J6J7 J7J8 J8J9 J9I9 I9H9 H9G9 G9F9 F9E9 E9D9 D9C9 C9B9 B9A9 A9A8"/>
    </vehicle>
    <vehicle id="63" depart="48.26">
        <route edges="B9C9 C9D9 D9E9 E9F9 F9G9 G9H9 H9I9 I9J9 J9J8 J8J7 J7J6 J6J5 J5J4"/>
    </vehicle>
    <vehicle id="64" depart="49.02">
        <route edges="J2J1 J1I1 I1I2 I2I3 I3I4 I4I5 I5I6 I6I7 I7H7 H7G7 G7F7 F7E7 E7D7 D7C7 C7B7 B7A7"/>
    </vehicle>
    <vehicle id="65" depart="49.79">
        <route edges="J6J7 J7J6 J6J5 J5I5 I5H5 H5G5 G5F5 F5E5 E5D5 D5C5 C5B5 B5A5"/>
    </vehicle>
    <vehicle id="66" depart="50.55">
        <route edges="D1C1 C1C2 C2C3 C3C4 C4C5 C5C6 C6C7 C7C8 C8C9 C9D9 D9E9 E9F9 F9G9 G9H9 H9I9"/>
    </vehicle>
    <vehicle id="67" depart="51.32">
        <route edges="I2I1 I1H1 H1G1 G1F1 F1E1 E1D1 D1C1 C1B1 B1B2 B2B3 B3B4 B4B5 B5B6 B6B7"/>
    </vehicle>
    <vehicle id="68" depart="52.09">
        <route edges="J3J2 J2I2 I2I3 I3H3 H3G3 G3F3 F3E3 E3D3 D3C3 C3B3 B3A3"/>
    </vehicle>
    <vehicle id="69" depart="52.85">
        <route edges="D0C0 C0C1 C1C2 C2C3 C3C4 C4C5 C5C6 C6C7 C7C8 C8C9 C9D9"/>
    </vehicle>
    <vehicle id="70" depart="53.62">
        <route edges="I8I7 I7H7 H7G7 G7F7 F7E7 E7D7 D7C7 C7B7 B7B6 B6B5 B5B4 B4B3 B3B2 B2B1 B1B0"/>
    </vehicle>
    <vehicle id="71" depart="54.38">
        <route edges="I6H6 H6H7 H7H8 H8H9 H9G9 G9F9 F9E9 E9D9 D9C9 C9B9 B9A9"/>
    </vehicle>
    <vehicle id="72" depart="55.15">
        <route edges="B2C2 C2C3 C3C4 C4C5 C5C6 C6C7 C7D7 D7E7 E7F7 F7G7 G7H7 H7I7 I7J7 J7J6"/>
    </vehicle>
    <vehicle id="73" depart="55.91">
        <route edges="H4H3 H3G3 G3G4 G4G5 G5G6 G6G7 G7G8 G8G9 G9F9 F9E9 E9D9 D9C9 C9B9 B9A9"/>
    </vehicle>
    <vehicle id="74" depart="56.68">
        <route edges="I9H9 H9G9 G9F9 F9E9 E9D9 D9D8 D8D7 D7D6 D6D5 D5D4 D4D3 D3D2 D2D1 D1D0 D0E0"/>
    </vehicle>
    <vehicle id="75" depart="57.45">
        <route edges="E0D0 D0D1 D1D2 D2D3 D3D4 D4D5 D5D6 D6D7 D7D8 D8D9 D9E9 E9F9 F9G9 G9H9 H9I9"/>
    </vehicle>
    <vehicle id="76" depart="58.21">
        <route edges="A7B7 B7C7 C7D7 D7E7 E7F7 F7G7 G7H7 H7I7 I7J7 J7J8 J8J9"/>
    </vehicle>
    <vehicle id="77" depart="58.98">
        <route edges="J1J2 J2J3 J3J4 J4J5 J5J6 J6J7 J7J8 J8I8 I8H8 H8G8 G8F8 F8E8 E8D8 D8C8 C8B8 B8A8 A8A9"/>
    </vehicle>
    <vehicle id="78" depart="59.74">
        <route edges="J1J2 J2J3 J3J4 J4I4 I4H4 H4G4 G4F4 F4E4 E4D4 D4C4 C4B4 B4A4 A4A3"/>
    </vehicle>
    <vehicle id="79" depart="60.51">
        <route edges="H9G9 G9F9 F9E9 E9E8 E8E7 E7E6 E6E5 E5E4 E4E3 E3E2 E2E1"/>
    </vehicle>
    <vehicle id="80" depart="61.28">
        <route edges="A6A5 A5A4 A4A3 A3A2 A2B2 B2C2 C2D2 D2E2 E2F2 F2G2 G2H2 H2I2"/>
    </vehicle>
    <vehicle id="81" depart="62.04">
        <route edges="D0C0 C0C1 C1C2 C2C3 C3C4 C4C5 C5C6 C6C7 C7C8 C8C9 C9D9 D9E9 E9F9 F9G9 G9H9 H9I9"/>
    </vehicle>
    <vehicle id="82" depart="62.81">
        <route edges="A7A8 A8B8 B8C8 C8D8 D8E8 E8F8 F8G8 G8H8 H8I8 I8J8 J8J7 J7J6 J6J5 J5J4 J4J3 J3J2"/>
    </vehicle>
    <vehicle id="83" depart="63.57">
        <route edges="C2B2 B2B3 B3B4 B4B5 B5B6 B6B7 B7B8 B8B9 B9C9 C9D9 D9E9 E9F9 F9G9 G9H9 H9I9 I9H9"/>
    </vehicle>
    <vehicle id="84" depart="64.34">
        <route edges="B2A2 A2A3 A3A4 A4A5 A5A6 A6A7 A7B7 B7C7 C7D7 D7E7 E7F7 F7G7 G7H7 H7I7 I7J7 J7J6"/>
    </vehicle>
    <vehicle id="85" depart="65.11">
        <route edges="C7B7 B7C7 C7D7 D7E7 E7F7 F7G7 G7H7 H7I7 I7J7 J7J6 J6J5 J5J4 J4J3 J3J2 J2J1 J1J2"/>
    </vehicle>
    <vehicle id="86" depart="65.87">
        <route edges="D8D7 D7D6 D6D5 D5D4 D4D3 D3D2 D2D1 D1E1 E1F1 F1G1 G1H1 H1I1 I1J1"/>
    </vehicle>
    <vehicle id="87" depart="66.64">
        <route edges="B8B7 B7B6 B6B5 B5B4 B4B3 B3B2 B2B1 B1C1 C1D1 D1E1 E1F1 F1G1 G1H1 H1G1"/>
    </vehicle>
    <vehicle id="88" depart="67.40">
        <route edges="A2A3 A3A4 A4A5 A5A6 A6A7 A7A8 A8A9 A9B9 B9C9 C9D9 D9E9 E9F9 F9G9 G9H9 H9H8"/>
    </vehicle>
    <vehicle id="89" depart="68.17">
        <route edges="J8J7 J7J6 J6J5 J5J4 J4I4 I4H4 H4G4 G4F4 F4E4 E4D4 D4C4 C4B4"/>
    </vehicle>
    <vehicle id="90" depart="68.94">
        <route edges="A9A8 A8A7 A7A6 A6A5 A5A4 A4A3 A3A2 A2A1 A1A0 A0B0 B0C0 C0D0 D0E0 E0F0 F0G0 G0H0 H0I0 I0J0 J0J1"/>
    </vehicle>
    <vehicle id="91" depart="69.70">
        <route edges="A4A3 A3A2 A2A1 A1B1 B1C1 C1D1 D1E1 E1F1 F1G1 G1H1 H1I1 I1J1 J1I1"/>
    </vehicle>
    <vehicle id="92" depart="70.47">
        <route edges="B1B2 B2B3 B3B4 B4B5 B5B6 B6B7 B7B8 B8B9 B9C9 C9D9 D9E9 E9F9 F9E9"/>
    </vehicle>
    <vehicle id="93" depart="71.23">
        <route edges="D0D1 D1D2 D2D3 D3D4 D4D5 D5D6 D6D7 D7D8 D8D9 D9C9"/>
    </vehicle>
    <vehicle id="94" depart="72.00">
        <route edges="B0C0 C0D0 D0E0 E0F0 F0G0 G0H0 H0I0 I0I1 I1I2 I2I3 I3I4 I4I5 I5I6 I6I7 I7J7"/>
    </vehicle>
    <vehicle id="95" depart="72.77">
        <route edges="F8F9 F9E9 E9D9 D9C9 C9C8 C8C7 C7C6 C6C5 C5C4 C4C3 C3C2 C2C1 C1C0"/>
    </vehicle>
    <vehicle id="96" depart="73.53">
        <route edges="G9F9 F9E9 E9D9 D9C9 C9C8 C8C7 C7C6 C6C5 C5C4 C4C3 C3C2 C2C1"/>
    </vehicle>
    <vehicle id="97" depart="74.30">
        <route edges="I0J0 J0J1 J1J2 J2J3 J3J4 J4J5 J5I5 I5H5 H5G5 G5F5 F5E5 E5D5 D5C5 C5B5 B5A5 A5A4"/>
    </vehicle>
    <vehicle id="98" depart="75.06">
        <route edges="J8J7 J7J6 J6J5 J5J4 J4J3 J3J2 J2I2 I2H2 H2G2 G2F2 F2E2 E2D2 D2C2 C2B2 B2B1"/>
    </vehicle>
    <vehicle id="99" depart="75.83">
        <route edges="D1C1 C1C2 C2C3 C3C4 C4C5 C5C6 C6C7 C7C8 C8C9 C9D9 D9E9 E9F9 F9G9 G9H9 H9I9 I9J9 J9J8"/>
    </vehicle>
    <vehicle id="100" depart="76.60">
        <route edges="A0A1 A1A2 A2A3 A3A4 A4A5 A5B5 B5C5 C5D5 D5E5 E5F5 F5G5 G5H5 H5I5"/>
    </vehicle>
    <vehicle id="101" depart="77.36">
        <route edges="C7D7 D7E7 E7F7 F7G7 G7H7 H7I7 I7I6 I6I5 I5I4 I4I3 I3I2 I2I1 I1I0"/>
    </vehicle>
    <vehicle id="102" depart="78.13">
        <route edges="J1J0 J0I0 I0H0 H0G0 G0F0 F0E0 E0D0 D0C0 C0C1 C1C2 C2C3 C3C4 C4C5 C5C6 C6C7 C7C8 C8C7"/>
    </vehicle>
    <vehicle id="103" depart="78.89">
        <route edges="D1D2 D2E2 E2F2 F2G2 G2G3 G3G4 G4G5 G5G6 G6G7 G7G8 G8G9"/>
    </vehicle>
    <vehicle id="104" depart="79.66">
        <route edges="G9F9 F9E9 E9D9 D9C9 C9B9 B9B8 B8B7 B7B6 B6B5 B5B4 B4B3 B3B2 B2B1 B1B0 B0A0 A0A1"/>
    </vehicle>
    <vehicle id="105" depart="80.43">
        <route edges="J8J9 J9I9 I9H9 H9G9 G9F9 F9E9 E9D9 D9C9 C9B9 B9B8 B8B7 B7B6 B6A6"/>
    </vehicle>
    <vehicle id="106" depart="81.19">
        <route edges="J1J2 J2J3 J3J4 J4J5 J5I5 I5H5 H5G5 G5F5 F5E5 E5D5 D5C5 C5B5 B5A5"/>
    </vehicle>
    <vehicle id="107" depart="81.96">
        <route edges="G1F1 F1E1 E1D1 D1C1 C1C2 C2C3 C3C4 C4C5 C5C6 C6C7 C7C8 C8C9"/>
    </vehicle>
    <vehicle id="108" depart="82.72">
        <route edges="I2J2 J2I2 I2H2 H2G2 G2F2 F2E2 E2D2 D2C2 C2B2 B2A2 A2A3 A3A4 A4A5 A5A6 A6A7 A7A6"/>
    </vehicle>
    <vehicle id="109" depart="83.49">
        <route edges="A7B7 B7B6 B6B5 B5B4 B4B3 B3B2 B2B1 B1B0 B0C0 C0D0 D0E0 E0F0 F0G0 G0H0 H0G0"/>
    </vehicle>
    <vehicle id="110" depart="84.26">
        <route edges="B6C6 C6D6 D6E6 E6F6 F6G6 G6H6 H6I6 I6J6 J6J5 J5J4 J4J3 J3J2 J2J1 J1J0"/>
    </vehicle>
    <vehicle id="111" depart="85.02">
        <route edges="J4I4 I4H4 H4G4 G4F4 F4E4 E4D4 D4C4 C4B4 B4A4 A4A5 A5A6 A6A7 A7A8 A8A9"/>
    </vehicle>
    <vehicle id="112" depart="85.79">
        <route edges="C1C0 C0D0 D0E0 E0F0 F0G0 G0H0 H0I0 I0I1 I1I2 I2I3 I3I4 I4I5 I5I6 I6I7 I7J7"/>
    </vehicle>
    <vehicle id="113" depart="86.55">
        <route edges="J3J4 J4J3 J3J2 J2J1 J1J0 J0I0 I0H0 H0G0 G0F0 F0E0 E0D0 D0C0 C0B0 B0A0 A0A1"/>
    </vehicle>
    <vehicle id="114" depart="87.32">
        <route edges="J9I9 I9H9 H9H8 H8H7 H7H6 H6H5 H5H4 H4H3 H3H2 H2H1 H1H0 H0G0"/>
    </vehicle>
    <vehicle id="115" depart="88.09">
        <route edges="B1B2 B2B3 B3B4 B4B5 B5B6 B6B7 B7B8 B8B9 B9C9 C9D9 D9E9 E9F9 F9G9 G9H9 H9I9 I9J9"/>
    </vehicle>
    <vehicle id="116" depart="88.85">
        <route edges="J6J5 J5J4 J4J3 J3J2 J2J1 J1J0 J0I0 I0H0 H0G0 G0F0 F0E0 E0D0 D0C0 C0B0 B0C0"/>
    </vehicle>
    <vehicle id="117" depart="89.62">
        <route edges="I0I1 I1I2 I2I3 I3I4 I4I5 I5I6 I6I7 I7I8 I8I9 I9H9 H9G9 G9F9 F9E9 E9D9 D9C9 C9B9 B9A9 A9A8"/>
    </vehicle>
    <vehicle id="118" depart="90.38">
        <route edges="J8J7 J7J6 J6J5 J5J4 J4I4 I4H4 H4G4 G4F4 F4E4 E4D4 D4C4 C4B4 B4A4 A4A3"/>
    </vehicle>
    <vehicle id="119" depart="91.15">
        <route edges="B5A5 A5A4 A4A3 A3A2 A2A1 A1A0 A0B0 B0C0 C0D0 D0E0 E0F0 F0G0 G0H0 H0I0 I0J0"/>
    </vehicle>
    <vehicle id="120" depart="91.91">
        <route edges="F0E0 E0D0 D0D1 D1D2 D2D3 D3D4 D4D5 D5D6 D6D7 D7D8 D8D9 D9C9"/>
    </vehicle>
    <vehicle id="121" depart="92.68">
        <route edges="J6J5 J5J4 J4J3 J3J2 J2I2 I2H2 H2G2 G2F2 F2E2 E2D2 D2C2 C2B2 B2B1"/>
    </vehicle>
    <vehicle id="122" depart="93.45">
        <route edges="I9H9 H9G9 G9F9 F9E9 E9D9 D9C9 C9B9 B9A9 A9A8 A8A7 A7A6 A6A5 A5A4 A4A3 A3B3"/>
    </vehicle>
    <vehicle id="123" depart="94.21">
        <route edges="C0C1 C1C2 C2C3 C3C4 C4C5 C5C6 C6C7 C7C8 C8D8 D8E8 E8F8 F8G8 G8H8 H8I8 I8J8 J8I8"/>
    </vehicle>
    <vehicle id="124" depart="94.98">
        <route edges="A0A1 A1A2 A2A3 A3A4 A4A5 A5A6 A6A7 A7A8 A8A9 A9B9 B9C9 C9D9 D9E9 E9F9 F9G9 G9H9 H9I9 I9I8"/>
    </vehicle>
    <vehicle id="125" depart="95.74">
        <route edges="J5J4 J4I4 I4H4 H4G4 G4F4 F4E4 E4D4 D4C4 C4B4 B4A4 A4A3"/>
    </vehicle>
    <vehicle id="126" depart="96.51">
        <route edges="B1A1 A1A2 A2A3 A3A4 A4A5 A5A6 A6A7 A7A8 A8A9 A9B9 B9C9 C9D9 D9E9 E9F9 F9G9 G9H9"/>
    </vehicle>
    <vehicle id="127" depart="97.28">
        <route edges="A0A1 A1A2 A2A3 A3A4 A4A5 A5A6 A6A7 A7A8 A8B8 B8C8 C8D8 D8E8"/>
    </vehicle>
    <vehicle id="128" depart="98.04">
        <route edges="A9A8 A8A7 A7A6 A6A5 A5A4 A4A3 A3A2 A2B2 B2C2 C2D2 D2E2 E2F2 F2G2 G2H2 H2I2 I2J2"/>
    </vehicle>
    <vehicle id="129" depart="98.81">
        <route edges="J3J4 J4J5 J5J6 J6J7 J7J8 J8J9 J9I9 I9H9 H9G9 G9F9 F9E9 E9D9 D9C9 C9B9 B9A9 A9A8"/>
    </vehicle>
    <vehicle id="130" depart="99.57">
        <route edges="I7I8 I8I7 I7I6 I6I5 I5I4 I4I3 I3I2 I2I1 I1H1 H1G1 G1F1 F1E1 E1D1 D1C1 C1B1 B1B2"/>
    </vehicle>
    <vehicle id="131" depart="100.34">
        <route edges="J2J3 J3J4 J4J5 J5J6 J6J7 J7J8 J8I8 I8H8 H8G8 G8F8 F8E8 E8D8 D8C8 C8B8 B8A8"/>
    </vehicle>
    <vehicle id="132" depart="101.11">
        <route edges="A7B7 B7C7 C7D7 D7E7 E7E6 E6E5 E5E4 E4E3 E3F3 F3G3 G3H3 H3I3"/>
    </vehicle>
    <vehicle id="133" depart="101.87">
        <route edges="A4B4 B4B5 B5B6 B6C6 C6D6 D6E6 E6F6 F6G6 G6H6 H6I6 I6J6"/>
    </vehicle>
    <vehicle id="134" depart="102.64">
        <route edges="I7I6 I6I5 I5I4 I4I3 I3I2 I2H2 H2G2 G2F2 F2E2 E2D2 D2C2 C2B2 B2A2 A2B2"/>
    </vehicle>
    <vehicle id="135" depart="103.40">
        <route edges="C8C7 C7C6 C6C5 C5C4 C4C3 C3C2 C2C1 C1C0 C0D0 D0E0 E0F0 F0G0 G0H0 H0I0 I0J0"/>
    </vehicle>
    <vehicle id="136" depart="104.17">
        <route edges="F9F8 F8F7 F7F6 F6F5 F5F4 F4F3 F3F2 F2F1 F1E1 E1D1 D1C1 C1B1 B1A1 A1A2"/>
    </vehicle>
    <vehicle id="137" depart="104.94">
        <route edges="A8B8 B8B7 B7B6 B6C6 C6D6 D6E6 E6F6 F6G6 G6H6 H6I6 I6J6"/>
    </vehicle>
    <vehicle id="138" depart="105.70">
        <route edges="G2G3 G3G4 G4G5 G5G6 G6G7 G7G8 G8G9 G9F9 F9E9 E9D9 D9C9 C9B9 B9A9"/>
    </vehicle>
    <vehicle id="139" depart="106.47">
        <route edges="C1D1 D1D2 D2D3 D3D4 D4D5 D5D6 D6D7 D7D8 D8D9 D9E9 E9F9 F9G9 G9F9"/>
    </vehicle>
    <vehicle id="140" depart="107.23">
        <route edges="J8I8 I8I7 I7I6 I6I5 I5I4 I4I3 I3I2 I2I1 I1I0 I0H0 H0G0 G0F0 F0E0 E0D0 D0E0"/>
    </vehicle>
    <vehicle id="141" depart="108.00">
        <route edges="A5B5 B5C5 C5D5 D5E5 E5F5 F5G5 G5H5 H5I5 I5I4 I4I3 I3I2"/>
    </vehicle>
    <vehicle id="142" depart="108.77">
        <route edges="B1B2 B2B3 B3B4 B4B5 B5B6 B6B7 B7B8 B8B9 B9C9 C9D9 D9E9 E9F9 F9G9 G9H9 H9I9"/>
    </vehicle>
    <vehicle id="143" depart="109.53">
        <route edges="B9C9 C9D9 D9E9 E9E8 E8E7 E7E6 E6E5 E5E4 E4E3 E3E2 E2E1 E1E0 E0F0"/>
    </vehicle>
    <vehicle id="144" depart="110.30">
        <route edges="J5I5 I5I6 I6I7 I7I8 I8H8 H8G8 G8F8 F8E8 E8D8 D8C8 C8B8"/>
    </vehicle>
    <vehicle id="145" depart="111.06">
        <route edges="J2J3 J3J4 J4J5 J5J6 J6J7 J7I7 I7H7 H7G7 G7F7 F7E7 E7D7 D7C7 C7B7 B7B8"/>
    </vehicle>
    <vehicle id="146" depart="111.83">
        <route edges="J6J5 J5I5 I5H5 H5G5 G5F5 F5E5 E5D5 D5C5 C5B5 B5A5"/>
    </vehicle>
    <vehicle id="147" depart="112.60">
        <route edges="I9J9 J9J8 J8J7 J7J6 J6J5 J5J4 J4J3 J3I3 I3H3 H3G3 G3F3 F3E3 E3D3 D3C3 C3B3 B3B2"/>
    </vehicle>
    <vehicle id="148" depart="113.36">
        <route edges="I4J4 J4J5 J5J6 J6J7 J7J8 J8J9 J9I9 I9H9 H9G9 G9F9 F9E9 E9D9 D9C9 C9B9 B9A9 A9A8"/>
    </vehicle>
    <vehicle id="149" depart="114.13">
        <route edges="J6I6 I6H6 H6G6 G6F6 F6E6 E6D6 D6C6 C6B6 B6A6 A6A7"/>
    </vehicle>
    <vehicle id="150" depart="114.89">
        <route edges="B1B0 B0B1 B1B2 B2B3 B3B4 B4B5 B5B6 B6B7 B7B8 B8B9 B9C9 C9D9 D9E9 E9F9 F9G9"/>
    </vehicle>
    <vehicle id="151" depart="115.66">
        <route edges="B5C5 C5C4 C4C3 C3C2 C2C1 C1C0 C0D0 D0E0 E0F0 F0G0 G0H0 H0I0"/>
    </vehicle>
    <vehicle id="152" depart="116.43">
        <route edges="J1I1 I1I2 I2I3 I3I4 I4I5 I5I6 I6I7 I7I8 I8I9 I9H9 H9G9 G9F9 F9E9 E9D9 D9E9"/>
    </vehicle>
    <vehicle id="153" depart="117.19">
        <route edges="A4A3 A3A4 A4A5 A5A6 A6A7 A7A8 A8A9 A9B9 B9C9 C9D9 D9E9 E9F9 F9G9 G9H9 H9I9"/>
    </vehicle>
    <vehicle id="154" depart="117.96">
        <route edges="A6A7 A7B7 B7C7 C7D7 D7E7 E7F7 F7G7 G7H7 H7I7 I7J7 J7J6 J6J5 J5J4 J4J3 J3J2 J2J1 J1J0"/>
    </vehicle>
    <vehicle id="155" depart="118.72">
        <route edges="C0B0 B0A0 A0A1 A1A2 A2A3 A3A4 A4A5 A5A6 A6A7 A7A8 A8A9"/>
    </vehicle>
    <vehicle id="156" depart="119.49">
        <route edges="I7I8 I8I7 I7I6 I6I5 I5I4 I4I3 I3I2 I2I1 I1H1 H1G1 G1F1 F1E1 E1D1 D1C1 C1B1"/>
    </vehicle>
    <vehicle id="157" depart="120.26">
        <route edges="B8B7 B7B6 B6B5 B5B4 B4C4 C4D4 D4E4 E4F4 F4G4 G4H4 H4I4 I4J4 J4J3"/>
    </vehicle>
    <vehicle id="158" depart="121.02">
        <route edges="A9A8 A8A7 A7A6 A6A5 A5A4 A4A3 A3A2 A2A1 A1B1 B1C1 C1D1 D1E1 E1F1 F1G1 G1H1 H1I1 I1J1 J1I1"/>
    </vehicle>
    <vehicle id="159" depart="121.79">
        <route edges="J4J5 J5J6 J6I6 I6H6 H6G6 G6F6 F6E6 E6D6 D6C6 C6B6 B6A6"/>
    </vehicle>
    <vehicle id="160" depart="122.55">
        <route edges="D0C0 C0B0 B0A0 A0A1 A1A2 A2A3 A3A4 A4A5 A5A6 A6A7 A7A8 A8A9"/>
    </vehicle>
    <vehicle id="161" depart="123.32">
        <route edges="A5B5 B5B6 B6B7 B7C7 C7D7 D7E7 E7F7 F7G7 G7H7 H7I7 I7J7 J7J6"/>
    </vehicle>
    <vehicle id="162" depart="124.09">
        <route edges="F9G9 G9G8 G8G7 G7G6 G6G5 G5G4 G4G3 G3G2 G2G1 G1G0 G0F0 F0E0"/>
    </vehicle>
    <vehicle id="163" depart="124.85">
        <route edges="B9B8 B8B7 B7B6 B6B5 B5B4 B4C4 C4D4 D4E4 E4F4 F4G4 G4H4 H4I4 I4J4 J4J3"/>
    </vehicle>
    <vehicle id="164" depart="125.62">
        <route edges="B8B9 B9C9 C9D9 D9E9 E9F9 F9G9 G9H9 H9I9 I9I8 I8I7 I7I6 I6I5 I5I4 I4I3 I3I2 I2I1 I1I0"/>
    </vehicle>
    <vehicle id="165" depart="126.38">
        <route edges="I0I1 I1I2 I2I3 I3I4 I4I5 I5I6 I6I7 I7I8 I8I9 I9H9 H9G9 G9F9 F9E9 E9D9 D9C9 C9B9 B9C9"/>
    </vehicle>
    <vehicle id="166" depart="127.15">
        <route edges="I4H4 H4H5 H5H6 H6H7 H7H8 H8H9 H9G9 G9F9 F9E9 E9D9 D9C9 C9B9"/>
    </vehicle>
    <vehicle id="167" depart="127.91">
        <route edges="C0D0 D0E0 E0F0 F0G0 G0G1 G1G2 G2G3 G3G4 G4G5 G5G6 G6G7 G7G8 G8G9 G9H9"/>
    </vehicle>
    <vehicle id="168" depart="128.68">
        <route edges="J5J4 J4J3 J3J2 J2J1 J1I1 I1H1 H1G1 G1F1 F1E1 E1D1 D1C1 C1B1 B1A1 A1A0 A0B0"/>
    </vehicle>
    <vehicle id="169" depart="129.45">
        <route edges="H0G0 G0F0 F0F1 F1F2 F2F3 F3F4 F4F5 F5F6 F6F7 F7F8 F8F9 F9E9"/>
    </vehicle>
    <vehicle id="170" depart="130.21">
        <route edges="C9C8 C8C7 C7C6 C6C5 C5C4 C4C3 C3C2 C2C1 C1D1 D1E1 E1F1 F1G1 G1H1 H1I1 I1I0"/>
    </vehicle>
    <vehicle id="171" depart="130.98">
        <route edges="A8A9 A9B9 B9C9 C9D9 D9E9 E9F9 F9G9 G9G8 G8G7 G7G6 G6G5 G5G4 G4G3 G3G2 G2H2"/>
    </vehicle>
    <vehicle id="172" depart="131.74">
        <route edges="A9B9 B9C9 C9D9 D9E9 E9F9 F9G9 G9H9 H9I9 I9J9 J9J8 J8J7 J7J6 J6J5 J5J4 J4J3 J3J2 J2J1 J1J0"/>
    </vehicle>
    <vehicle id="173" depart="132.51">
        <route edges="B2C2 C2C3 C3C4 C4C5 C5C6 C6C7 C7C8 C8C9 C9D9 D9E9 E9F9 F9G9 G9H9 H9I9 I9J9"/>
    </vehicle>
    <vehicle id="174" depart="133.28">
        <route edges="F0E0 E0D0 D0D1 D1D2 D2D3 D3D4 D4D5 D5D6 D6D7 D7D8 D8D9 D9E9"/>
    </vehicle>
    <vehicle id="175" depart="134.04">
        <route edges="G0H0 H0G0 G0F0 F0E0 E0D0 D0C0 C0C1 C1C2 C2C3 C3C4 C4C5 C5C6 C6C7 C7B7"/>
    </vehicle>
    <vehicle id="176" depart="134.81">
        <route edges="A0A1 A1A2 A2A3 A3A4 A4A5 A5A6 A6A7 A7A8 A8A9 A9B9 B9C9 C9D9 D9E9 E9F9 F9G9 G9H9 H9I9"/>
    </vehicle>
    <vehicle id="177" depart="135.57">
        <route edges="B9C9 C9D9 D9D8 D8D7 D7D6 D6D5 D5D4 D4D3 D3D2 D2D1 D1D0 D0C0"/>
    </vehicle>
    <vehicle id="178" depart="136.34">
        <route edges="C8B8 B8C8 C8D8 D8E8 E8F8 F8G8 G8G7 G7G6 G6G5 G5G4 G4G3 G3G2 G2G1 G1H1"/>
    </vehicle>
    <vehicle id="179" depart="137.11">
        <route edges="J3J4 J4J5 J5J6 J6J7 J7I7 I7H7 H7G7 G7F7 F7E7 E7D7 D7C7 C7B7 B7A7 A7A6"/>
    </vehicle>
    <vehicle id="180" depart="137.87">
        <route edges="I1I0 I0H0 H0G0 G0F0 F0E0 E0D0 D0C0 C0B0 B0B1 B1B2 B2B3 B3B4 B4A4"/>
    </vehicle>
    <vehicle id="181" depart="138.64">
        <route edges="H7H6 H6H5 H5H4 H4H3 H3H2 H2H1 H1G1 G1F1 F1E1 E1D1 D1C1 C1B1 B1A1 A1A2"/>
    </vehicle>
    <vehicle id="182" depart="139.40">
        <route edges="F2F1 F1E1 E1D1 D1C1 C1B1 B1A1 A1A2 A2A3 A3A4 A4A5 A5A6 A6A7 A7A8 A8A9"/>
    </vehicle>
    <vehicle id="183" depart="140.17">
        <route edges="A8B8 B8C8 C8D8 D8E8 E8F8 F8G8 G8H8 H8I8 I8J8 J8J7 J7J6 J6J5 J5J4 J4J3 J3J2 J2J1 J1I1"/>
    </vehicle>
    <vehicle id="184" depart="140.94">
        <route edges="I6J6 J6J5 J5J4 J4J3 J3J2 J2J1 J1J0 J0I0 I0H0 H0G0 G0F0 F0E0 E0D0 D0C0 C0B0 B0A0"/>
    </vehicle>
    <vehicle id="185" depart="141.70">
        <route edges="G9H9 H9I9 I9I8 I8I7 I7I6 I6I5 I5I4 I4I3 I3I2 I2I1 I1I0 I0J0"/>
    </vehicle>
    <vehicle id="186" depart="142.47">
        <route edges="J8J9 J9I9 I9H9 H9G9 G9F9 F9E9 E9D9 D9D8 D8D7 D7D6 D6D5 D5D4 D4D3 D3D2 D2D1 D1D0"/>
    </vehicle>
    <vehicle id="187" depart="143.23">
        <route edges="B8C8 C8D8 D8E8 E8F8 F8G8 G8H8 H8I8 I8I7 I7I6 I6I5 I5I4 I4I3 I3I2 I2I1 I1H1"/>
    </vehicle>
    <vehicle id="188" depart="144.00">
        <route edges="F7E7 E7E6 E6E5 E5E4 E4E3 E3E2 E2E1 E1E0 E0D0 D0C0 C0B0 B0A0"/>
    </vehicle>
    <vehicle id="189" depart="144.77">
        <route edges="D0C0 C0C1 C1C2 C2C3 C3C4 C4C5 C5C6 C6C7 C7C8 C8C9 C9D9 D9E9"/>
    </vehicle>
    <vehicle id="190" depart="145.53">
        <route edges="D1D2 D2D3 D3D4 D4D5 D5D6 D6D7 D7D8 D8E8 E8F8 F8G8 G8H8 H8I8 I8J8 J8I8"/>
    </vehicle>
    <vehicle id="191" depart="146.30">
        <route edges="A5B5 B5B4 B4B3 B3B2 B2B1 B1B0 B0C0 C0D0 D0E0 E0F0 F0G0 G0H0 H0I0 I0H0"/>
    </vehicle>
    <vehicle id="192" depart="147.06">
        <route edges="A1B1 B1B2 B2B3 B3B4 B4B5 B5B6 B6B7 B7B8 B8C8 C8D8 D8E8 E8F8 F8G8 G8F8"/>
    </vehicle>
    <vehicle id="193" depart="147.83">
        <route edges="A2A3 A3A4 A4B4 B4C4 C4D4 D4E4 E4F4 F4G4 G4H4 H4I4 I4J4"/>
    </vehicle>
    <vehicle id="194" depart="148.60">