<routes>
    <vType id="car" accel="2.6" decel="4.5" sigma="0.5" length="5.0" minGap="2.5" maxSpeed="13.9"/>
    <route id="route1" edges="edge1 edge2 edge3"/>

    <vehicle id="veh1" type="car" route="route1" depart="0"/>
    <vehicle id="veh2" type="car" route="route1" depart="5"/>
    <vehicle id="veh3" type="car" route="route1" depart="10"/>
</routes>
