<?xml version="1.0" encoding="UTF-8"?>

<!-- generated on 2024-08-11 16:57:07 by Eclipse SUMO netgenerate Version 1.20.0
<configuration xmlns:xsi="http://www.w3.org/2001/XMLSchema-instance" xsi:noNamespaceSchemaLocation="http://sumo.dlr.de/xsd/netgenerateConfiguration.xsd">

    <random_network>
        <rand value="true"/>
        <rand.iterations value="100"/>
        <rand.max-distance value="200"/>
        <rand.min-distance value="50"/>
    </random_network>

    <output>
        <output-file value="rand.net.xml"/>
    </output>

</configuration>
-->

<net version="1.20" junctionCornerDetail="5" limitTurnSpeed="5.50" xmlns:xsi="http://www.w3.org/2001/XMLSchema-instance" xsi:noNamespaceSchemaLocation="http://sumo.dlr.de/xsd/net_file.xsd">

    <location netOffset="825.25,683.45" convBoundary="0.00,0.00,2144.03,1454.22" origBoundary="-825.25,-683.45,1318.78,770.77" projParameter="!"/>

    <edge id=":1_0" function="internal">
        <lane id=":1_0_0" index="0" speed="5.98" length="9.08" shape="823.78,691.74 823.37,689.17 822.24,687.60 820.39,687.02 817.82,687.43"/>
    </edge>
    <edge id=":1_1" function="internal">
        <lane id=":1_1_0" index="0" speed="13.89" length="14.86" shape="823.78,691.74 823.64,688.02 823.32,684.33 822.81,680.67 822.06,677.02"/>
    </edge>
    <edge id=":1_2" function="internal">
        <lane id=":1_2_0" index="0" speed="8.09" length="4.36" shape="823.78,691.74 824.27,687.41"/>
    </edge>
    <edge id=":1_3" function="internal">
        <lane id=":1_3_0" index="0" speed="3.65" length="1.44" shape="823.78,691.74 824.56,690.53"/>
    </edge>
    <edge id=":1_16" function="internal">
        <lane id=":1_16_0" index="0" speed="8.09" length="10.76" shape="824.27,687.41 825.92,684.36 828.72,682.60 832.68,682.13"/>
    </edge>
    <edge id=":1_17" function="internal">
        <lane id=":1_17_0" index="0" speed="3.65" length="3.23" shape="824.56,690.53 825.35,690.12 826.16,690.51 826.98,691.69"/>
    </edge>
    <edge id=":1_4" function="internal">
        <lane id=":1_4_0" index="0" speed="6.62" length="9.76" shape="832.56,685.33 830.08,685.64 828.32,686.81 827.29,688.83 826.98,691.69"/>
    </edge>
    <edge id=":1_5" function="internal">
        <lane id=":1_5_0" index="0" speed="13.89" length="14.95" shape="832.56,685.33 828.82,685.37 825.11,685.75 821.43,686.45 817.82,687.43"/>
    </edge>
    <edge id=":1_6" function="internal">
        <lane id=":1_6_0" index="0" speed="9.03" length="14.51" shape="832.56,685.33 828.68,684.69 825.64,683.09 823.43,680.53 822.06,677.02"/>
    </edge>
    <edge id=":1_7" function="internal">
        <lane id=":1_7_0" index="0" speed="3.65" length="4.67" shape="832.56,685.33 831.39,684.48 831.02,683.67 831.45,682.88 832.68,682.13"/>
    </edge>
    <edge id=":1_8" function="internal">
        <lane id=":1_8_0" index="0" speed="7.70" length="10.32" shape="825.17,676.27 826.14,678.75 827.72,680.55 829.90,681.68 832.68,682.13"/>
    </edge>
    <edge id=":1_9" function="internal">
        <lane id=":1_9_0" index="0" speed="13.89" length="15.56" shape="825.17,676.27 825.93,680.03 826.48,683.93 826.82,687.86 826.98,691.69"/>
    </edge>
    <edge id=":1_10" function="internal">
        <lane id=":1_10_0" index="0" speed="8.41" length="4.08" shape="825.17,676.27 825.45,680.07 825.36,680.32"/>
    </edge>
    <edge id=":1_11" function="internal">
        <lane id=":1_11_0" index="0" speed="3.65" length="1.44" shape="825.17,676.27 824.67,677.62"/>
    </edge>
    <edge id=":1_18" function="internal">
        <lane id=":1_18_0" index="0" speed="8.41" length="10.92" shape="825.36,680.32 824.32,683.19 821.78,685.64 817.82,687.43"/>
    </edge>
    <edge id=":1_19" function="internal">
        <lane id=":1_19_0" index="0" speed="3.65" length="3.23" shape="824.67,677.62 823.99,678.20 823.11,678.00 822.06,677.02"/>
    </edge>
    <edge id=":1_12" function="internal">
        <lane id=":1_12_0" index="0" speed="7.00" length="10.09" shape="816.87,684.37 819.62,683.16 821.40,681.53 822.21,679.48 822.06,677.02"/>
    </edge>
    <edge id=":1_13" function="internal">
        <lane id=":1_13_0" index="0" speed="13.89" length="16.03" shape="816.87,684.37 820.65,683.37 824.69,682.62 828.77,682.19 832.68,682.13"/>
    </edge>
    <edge id=":1_14" function="internal">
        <lane id=":1_14_0" index="0" speed="7.59" length="15.41" shape="816.87,684.37 821.23,683.67 824.37,684.66 826.28,687.33 826.98,691.69"/>
    </edge>
    <edge id=":1_15" function="internal">
        <lane id=":1_15_0" index="0" speed="3.65" length="4.67" shape="816.87,684.37 818.25,684.78 818.87,685.43 818.73,686.31 817.82,687.43"/>
    </edge>
    <edge id=":10_0" function="internal">
        <lane id=":10_0_0" index="0" speed="9.16" length="12.36" shape="719.48,717.94 716.21,719.32 713.74,721.15 712.08,723.46 711.22,726.23"/>
    </edge>
    <edge id=":10_1" function="internal">
        <lane id=":10_1_0" index="0" speed="13.89" length="16.72" shape="719.48,717.94 715.57,718.89 711.25,719.44 706.92,719.54 702.93,719.11"/>
    </edge>
    <edge id=":10_2" function="internal">
        <lane id=":10_2_0" index="0" speed="7.50" length="15.86" shape="719.48,717.94 714.92,718.69 711.78,717.65 710.05,714.82 709.73,710.21"/>
    </edge>
    <edge id=":10_3" function="internal">
        <lane id=":10_3_0" index="0" speed="3.65" length="4.67" shape="719.48,717.94 718.09,717.54 717.48,716.89 717.62,716.01 718.53,714.89"/>
    </edge>
    <edge id=":10_4" function="internal">
        <lane id=":10_4_0" index="0" speed="5.85" length="9.12" shape="712.92,710.44 713.10,713.09 714.10,714.72 715.91,715.32 718.53,714.89"/>
    </edge>
    <edge id=":10_5" function="internal">
        <lane id=":10_5_0" index="0" speed="13.89" length="15.88" shape="712.92,710.44 711.22,726.23"/>
    </edge>
    <edge id=":10_6" function="internal">
        <lane id=":10_6_0" index="0" speed="8.01" length="5.02" shape="712.92,710.44 712.02,714.91 711.76,715.29"/>
    </edge>
    <edge id=":10_7" function="internal">
        <lane id=":10_7_0" index="0" speed="3.65" length="1.44" shape="712.92,710.44 712.04,711.58"/>
    </edge>
    <edge id=":10_16" function="internal">
        <lane id=":10_16_0" index="0" speed="8.01" length="10.50" shape="711.76,715.29 710.05,717.84 707.02,719.24 702.93,719.11"/>
    </edge>
    <edge id=":10_17" function="internal">
        <lane id=":10_17_0" index="0" speed="3.65" length="3.23" shape="712.04,711.58 711.21,711.92 710.44,711.47 709.73,710.21"/>
    </edge>
    <edge id=":10_8" function="internal">
        <lane id=":10_8_0" index="0" speed="6.52" length="9.90" shape="703.54,715.97 706.07,716.02 707.94,715.08 709.16,713.15 709.73,710.21"/>
    </edge>
    <edge id=":10_9" function="internal">
        <lane id=":10_9_0" index="0" speed="13.89" length="15.16" shape="703.54,715.97 707.28,716.41 711.09,716.34 714.86,715.82 718.53,714.89"/>
    </edge>
    <edge id=":10_10" function="internal">
        <lane id=":10_10_0" index="0" speed="8.19" length="14.48" shape="703.54,715.97 707.39,717.26 709.95,719.41 711.23,722.39 711.22,726.23"/>
    </edge>
    <edge id=":10_11" function="internal">
        <lane id=":10_11_0" index="0" speed="3.65" length="4.67" shape="703.54,715.97 704.57,716.98 704.81,717.84 704.26,718.55 702.93,719.11"/>
    </edge>
    <edge id=":10_12" function="internal">
        <lane id=":10_12_0" index="0" speed="6.74" length="9.47" shape="708.05,725.74 708.05,723.27 707.19,721.35 705.49,719.96 702.93,719.11"/>
    </edge>
    <edge id=":10_13" function="internal">
        <lane id=":10_13_0" index="0" speed="13.89" length="15.62" shape="708.05,725.74 709.73,710.21"/>
    </edge>
    <edge id=":10_14" function="internal">
        <lane id=":10_14_0" index="0" speed="10.34" length="3.84" shape="708.05,725.74 709.17,722.07"/>
    </edge>
    <edge id=":10_15" function="internal">
        <lane id=":10_15_0" index="0" speed="3.65" length="1.44" shape="708.05,725.74 709.03,724.68"/>
    </edge>
    <edge id=":10_18" function="internal">
        <lane id=":10_18_0" index="0" speed="10.34" length="12.11" shape="709.17,722.07 711.29,719.04 714.41,716.64 718.53,714.89"/>
    </edge>
    <edge id=":10_19" function="internal">
        <lane id=":10_19_0" index="0" speed="3.65" length="3.23" shape="709.03,724.68 709.88,724.40 710.61,724.92 711.22,726.23"/>
    </edge>
    <edge id=":1007_0" function="internal">
        <lane id=":1007_0_0" index="0" speed="3.65" length="4.67" shape="987.09,154.38 986.66,153.00 986.86,152.13 987.68,151.76 989.11,151.90"/>
    </edge>
    <edge id=":1013_0" function="internal">
        <lane id=":1013_0_0" index="0" speed="5.48" length="9.70" shape="1882.82,657.61 1880.78,655.29 1879.11,654.73 1877.82,655.92 1876.90,658.87"/>
    </edge>
    <edge id=":1013_1" function="internal">
        <lane id=":1013_1_0" index="0" speed="9.49" length="16.19" shape="1882.82,657.61 1879.73,654.06 1876.40,651.93 1872.82,651.20 1869.01,651.89"/>
    </edge>
    <edge id=":1013_2" function="internal">
        <lane id=":1013_2_0" index="0" speed="13.89" length="18.74" shape="1882.82,657.61 1880.47,653.95 1878.01,649.54 1875.90,644.97 1874.61,640.86"/>
    </edge>
    <edge id=":1013_3" function="internal">
        <lane id=":1013_3_0" index="0" speed="3.65" length="4.67" shape="1882.82,657.61 1882.79,656.16 1883.22,655.38 1884.10,655.25 1885.45,655.77"/>
    </edge>
    <edge id=":1013_4" function="internal">
        <lane id=":1013_4_0" index="0" speed="13.89" length="17.43" shape="1877.75,640.24 1878.96,644.16 1880.89,648.31 1883.17,652.31 1885.45,655.77"/>
    </edge>
    <edge id=":1013_5" function="internal">
        <lane id=":1013_5_0" index="0" speed="13.89" length="18.73" shape="1877.75,640.24 1878.16,644.53 1878.04,649.55 1877.56,654.58 1876.90,658.87"/>
    </edge>
    <edge id=":1013_6" function="internal">
        <lane id=":1013_6_0" index="0" speed="8.96" length="4.29" shape="1877.75,640.24 1877.80,643.97 1877.56,644.48"/>
    </edge>
    <edge id=":1013_7" function="internal">
        <lane id=":1013_7_0" index="0" speed="3.65" length="1.44" shape="1877.75,640.24 1877.20,641.57"/>
    </edge>
    <edge id=":1013_16" function="internal">
        <lane id=":1013_16_0" index="0" speed="8.96" length="11.77" shape="1877.56,644.48 1876.36,647.15 1873.43,649.79 1869.01,651.89"/>
    </edge>
    <edge id=":1013_17" function="internal">
        <lane id=":1013_17_0" index="0" speed="3.65" length="3.23" shape="1877.20,641.57 1876.49,642.12 1875.63,641.88 1874.61,640.86"/>
    </edge>
    <edge id=":1013_8" function="internal">
        <lane id=":1013_8_0" index="0" speed="7.64" length="11.44" shape="1867.94,648.87 1871.25,647.35 1873.47,645.51 1874.59,643.34 1874.61,640.86"/>
    </edge>
    <edge id=":1013_9" function="internal">
        <lane id=":1013_9_0" index="0" speed="10.60" length="20.39" shape="1867.94,648.87 1872.85,647.96 1877.40,648.80 1881.60,651.40 1885.45,655.77"/>
    </edge>
    <edge id=":1013_10" function="internal">
        <lane id=":1013_10_0" index="0" speed="7.68" length="18.25" shape="1867.94,648.87 1872.87,647.95 1876.00,649.31 1877.35,652.95 1876.90,658.87"/>
    </edge>
    <edge id=":1013_11" function="internal">
        <lane id=":1013_11_0" index="0" speed="3.65" length="4.67" shape="1867.94,648.87 1869.34,649.23 1869.98,649.85 1869.87,650.74 1869.01,651.89"/>
    </edge>
    <edge id=":1013_12" function="internal">
        <lane id=":1013_12_0" index="0" speed="6.03" length="10.69" shape="1873.76,658.28 1874.08,654.63 1873.39,652.36 1871.70,651.44 1869.01,651.89"/>
    </edge>
    <edge id=":1013_13" function="internal">
        <lane id=":1013_13_0" index="0" speed="13.89" length="17.51" shape="1873.76,658.28 1874.42,654.17 1874.90,649.57 1875.02,644.96 1874.61,640.86"/>
    </edge>
    <edge id=":1013_14" function="internal">
        <lane id=":1013_14_0" index="0" speed="7.41" length="4.68" shape="1873.76,658.28 1875.15,653.81"/>
    </edge>
    <edge id=":1013_15" function="internal">
        <lane id=":1013_15_0" index="0" speed="3.65" length="1.44" shape="1873.76,658.28 1874.77,657.25"/>
    </edge>
    <edge id=":1013_18" function="internal">
        <lane id=":1013_18_0" index="0" speed="7.41" length="14.46" shape="1875.15,653.81 1875.57,652.45 1878.12,650.09 1881.41,651.20 1885.45,655.77"/>
    </edge>
    <edge id=":1013_19" function="internal">
        <lane id=":1013_19_0" index="0" speed="3.65" length="3.23" shape="1874.77,657.25 1875.63,657.00 1876.34,657.55 1876.90,658.87"/>
    </edge>
    <edge id=":12_0" function="internal">
        <lane id=":12_0_0" index="0" speed="13.89" length="0.84" shape="864.97,539.68 864.82,539.49 864.69,539.37 864.54,539.29 864.31,539.19"/>
    </edge>
    <edge id=":12_1" function="internal">
        <lane id=":12_1_0" index="0" speed="7.63" length="2.51" shape="865.50,536.22 866.18,536.51 866.62,536.76 867.00,537.11 867.47,537.68"/>
    </edge>
    <edge id=":1235_0" function="internal">
        <lane id=":1235_0_0" index="0" speed="6.33" length="10.29" shape="677.55,572.26 675.86,569.45 673.99,568.01 671.93,567.94 669.69,569.24"/>
    </edge>
    <edge id=":1235_1" function="internal">
        <lane id=":1235_1_0" index="0" speed="13.18" length="18.38" shape="677.55,572.26 675.87,567.56 675.20,563.03 675.56,558.66 676.94,554.45"/>
    </edge>
    <edge id=":1235_2" function="internal">
        <lane id=":1235_2_0" index="0" speed="7.39" length="17.08" shape="677.55,572.26 676.02,567.32 676.73,564.03 679.67,562.38 684.84,562.39"/>
    </edge>
    <edge id=":1235_3" function="internal">
        <lane id=":1235_3_0" index="0" speed="3.65" length="4.67" shape="677.55,572.26 677.78,570.84 678.34,570.14 679.23,570.17 680.46,570.93"/>
    </edge>
    <edge id=":1235_4" function="internal">
        <lane id=":1235_4_0" index="0" speed="5.63" length="9.28" shape="684.42,565.57 681.61,565.56 680.01,566.45 679.63,568.24 680.46,570.93"/>
    </edge>
    <edge id=":1235_5" function="internal">
        <lane id=":1235_5_0" index="0" speed="12.42" length="15.63" shape="684.42,565.57 680.13,565.35 676.24,565.89 672.76,567.18 669.69,569.24"/>
    </edge>
    <edge id=":1235_6" function="internal">
        <lane id=":1235_6_0" index="0" speed="7.82" length="16.57" shape="684.42,565.57 679.51,564.28 676.62,562.00 675.77,558.73 676.94,554.45"/>
    </edge>
    <edge id=":1235_7" function="internal">
        <lane id=":1235_7_0" index="0" speed="3.65" length="4.67" shape="684.42,565.57 683.34,564.61 683.05,563.77 683.55,563.03 684.84,562.39"/>
    </edge>
    <edge id=":1235_8" function="internal">
        <lane id=":1235_8_0" index="0" speed="6.27" length="10.20" shape="679.85,555.79 679.20,558.30 679.81,560.24 681.69,561.60 684.84,562.39"/>
    </edge>
    <edge id=":1235_9" function="internal">
        <lane id=":1235_9_0" index="0" speed="12.18" length="15.63" shape="679.85,555.79 678.70,559.32 678.42,563.02 679.01,566.89 680.46,570.93"/>
    </edge>
    <edge id=":1235_10" function="internal">
        <lane id=":1235_10_0" index="0" speed="13.89" length="16.95" shape="679.85,555.79 677.92,559.35 675.42,563.00 672.59,566.41 669.69,569.24"/>
    </edge>
    <edge id=":1235_11" function="internal">
        <lane id=":1235_11_0" index="0" speed="3.65" length="1.44" shape="679.85,555.79 678.62,556.54"/>
    </edge>
    <edge id=":1235_16" function="internal">
        <lane id=":1235_16_0" index="0" speed="3.65" length="3.23" shape="678.62,556.54 677.72,556.57 677.16,555.88 676.94,554.45"/>
    </edge>
    <edge id=":1235_12" function="internal">
        <lane id=":1235_12_0" index="0" speed="13.89" length="15.57" shape="667.62,566.80 670.39,564.14 672.93,561.12 675.14,557.85 676.94,554.45"/>
    </edge>
    <edge id=":1235_13" function="internal">
        <lane id=":1235_13_0" index="0" speed="13.41" length="3.95" shape="667.62,566.80 670.90,564.59"/>
    </edge>
    <edge id=":1235_14" function="internal">
        <lane id=":1235_14_0" index="0" speed="7.87" length="3.11" shape="667.62,566.80 670.29,565.20"/>
    </edge>
    <edge id=":1235_15" function="internal">
        <lane id=":1235_15_0" index="0" speed="3.65" length="1.44" shape="667.62,566.80 669.05,566.63"/>
    </edge>
    <edge id=":1235_17" function="internal">
        <lane id=":1235_17_0" index="0" speed="13.41" length="14.36" shape="670.90,564.59 671.25,564.35 675.33,562.80 679.86,562.15 684.84,562.39"/>
    </edge>
    <edge id=":1235_18" function="internal">
        <lane id=":1235_18_0" index="0" speed="7.87" length="13.44" shape="670.29,565.20 671.38,564.55 674.77,564.48 677.80,566.61 680.46,570.93"/>
    </edge>
    <edge id=":1235_19" function="internal">
        <lane id=":1235_19_0" index="0" speed="3.65" length="3.23" shape="669.05,566.63 669.87,566.98 670.09,567.85 669.69,569.24"/>
    </edge>
    <edge id=":1254_0" function="internal">
        <lane id=":1254_0_0" index="0" speed="6.35" length="9.39" shape="1997.57,816.58 1995.14,815.36 1993.03,815.24 1991.23,816.20 1989.76,818.25"/>
    </edge>
    <edge id=":1254_1" function="internal">
        <lane id=":1254_1_0" index="0" speed="13.89" length="16.09" shape="1997.57,816.58 1994.43,814.22 1991.36,811.46 1988.53,808.46 1986.11,805.38"/>
    </edge>
    <edge id=":1254_2" function="internal">
        <lane id=":1254_2_0" index="0" speed="7.64" length="4.76" shape="1997.57,816.58 1994.38,813.67 1994.21,813.26"/>
    </edge>
    <edge id=":1254_3" function="internal">
        <lane id=":1254_3_0" index="0" speed="3.65" length="1.44" shape="1997.57,816.58 1997.02,815.24"/>
    </edge>
    <edge id=":1254_16" function="internal">
        <lane id=":1254_16_0" index="0" speed="7.64" length="10.43" shape="1994.21,813.26 1993.17,810.62 1993.95,807.44 1996.70,804.11"/>
    </edge>
    <edge id=":1254_17" function="internal">
        <lane id=":1254_17_0" index="0" speed="3.65" length="3.23" shape="1997.02,815.24 1997.14,814.35 1997.92,813.92 1999.37,813.93"/>
    </edge>
    <edge id=":1254_4" function="internal">
        <lane id=":1254_4_0" index="0" speed="6.05" length="9.07" shape="1998.85,806.49 1997.20,808.47 1996.74,810.37 1997.46,812.19 1999.37,813.93"/>
    </edge>
    <edge id=":1254_5" function="internal">
        <lane id=":1254_5_0" index="0" speed="13.89" length="14.94" shape="1998.85,806.49 1996.18,809.11 1993.76,811.95 1991.61,815.00 1989.76,818.25"/>
    </edge>
    <edge id=":1254_6" function="internal">
        <lane id=":1254_6_0" index="0" speed="7.88" length="15.04" shape="1998.85,806.49 1995.30,808.91 1992.00,809.53 1988.93,808.35 1986.11,805.38"/>
    </edge>
    <edge id=":1254_7" function="internal">
        <lane id=":1254_7_0" index="0" speed="3.65" length="4.67" shape="1998.85,806.49 1997.42,806.70 1996.59,806.37 1996.35,805.51 1996.70,804.11"/>
    </edge>
    <edge id=":1254_8" function="internal">
        <lane id=":1254_8_0" index="0" speed="6.36" length="9.39" shape="1988.73,803.55 1990.48,805.37 1992.39,806.07 1994.46,805.65 1996.70,804.11"/>
    </edge>
    <edge id=":1254_9" function="internal">
        <lane id=":1254_9_0" index="0" speed="13.89" length="14.94" shape="1988.73,803.55 1991.02,806.50 1993.57,809.22 1996.36,811.70 1999.37,813.93"/>
    </edge>
    <edge id=":1254_10" function="internal">
        <lane id=":1254_10_0" index="0" speed="10.43" length="4.04" shape="1988.73,803.55 1990.64,807.11"/>
    </edge>
    <edge id=":1254_11" function="internal">
        <lane id=":1254_11_0" index="0" speed="3.65" length="1.44" shape="1988.73,803.55 1988.76,804.99"/>
    </edge>
    <edge id=":1254_18" function="internal">
        <lane id=":1254_18_0" index="0" speed="10.43" length="11.49" shape="1990.64,807.11 1991.45,810.74 1991.15,814.46 1989.76,818.25"/>
    </edge>
    <edge id=":1254_19" function="internal">
        <lane id=":1254_19_0" index="0" speed="3.65" length="3.23" shape="1988.76,804.99 1988.34,805.77 1987.45,805.91 1986.11,805.38"/>
    </edge>
    <edge id=":1254_12" function="internal">
        <lane id=":1254_12_0" index="0" speed="9.25" length="12.06" shape="1986.91,816.80 1987.99,813.85 1988.22,810.97 1987.59,808.14 1986.11,805.38"/>
    </edge>
    <edge id=":1254_13" function="internal">
        <lane id=":1254_13_0" index="0" speed="13.89" length="16.10" shape="1986.91,816.80 1988.87,813.41 1991.26,810.04 1993.93,806.88 1996.70,804.11"/>
    </edge>
    <edge id=":1254_14" function="internal">
        <lane id=":1254_14_0" index="0" speed="7.87" length="15.04" shape="1986.91,816.80 1989.29,813.46 1992.16,811.87 1995.52,812.02 1999.37,813.93"/>
    </edge>
    <edge id=":1254_15" function="internal">
        <lane id=":1254_15_0" index="0" speed="3.65" length="4.67" shape="1986.91,816.80 1988.16,816.09 1989.06,816.10 1989.59,816.81 1989.76,818.25"/>
    </edge>
    <edge id=":1258_0" function="internal">
        <lane id=":1258_0_0" index="0" speed="10.89" length="19.76" shape="1858.71,754.47 1857.10,759.40 1854.36,763.20 1850.51,765.86 1845.53,767.38"/>
    </edge>
    <edge id=":1258_1" function="internal">
        <lane id=":1258_1_0" index="0" speed="7.39" length="7.99" shape="1858.71,754.47 1857.05,759.53 1855.09,761.32"/>
    </edge>
    <edge id=":1258_2" function="internal">
        <lane id=":1258_2_0" index="0" speed="3.65" length="1.44" shape="1858.71,754.47 1857.70,755.50"/>
    </edge>
    <edge id=":1258_9" function="internal">
        <lane id=":1258_9_0" index="0" speed="7.39" length="9.46" shape="1855.09,761.32 1854.55,761.81 1851.20,761.30 1846.99,758.00"/>
    </edge>
    <edge id=":1258_10" function="internal">
        <lane id=":1258_10_0" index="0" speed="3.65" length="3.23" shape="1857.70,755.50 1856.84,755.74 1856.12,755.20 1855.56,753.87"/>
    </edge>
    <edge id=":1258_3" function="internal">
        <lane id=":1258_3_0" index="0" speed="5.60" length="9.36" shape="1849.27,755.75 1851.53,757.53 1853.33,757.80 1854.68,756.58 1855.56,753.87"/>
    </edge>
    <edge id=":1258_4" function="internal">
        <lane id=":1258_4_0" index="0" speed="7.38" length="17.46" shape="1849.27,755.75 1852.51,760.00 1852.97,763.36 1850.64,765.81 1845.53,767.38"/>
    </edge>
    <edge id=":1258_5" function="internal">
        <lane id=":1258_5_0" index="0" speed="3.65" length="4.67" shape="1849.27,755.75 1849.55,757.17 1849.26,758.01 1848.41,758.29 1846.99,758.00"/>
    </edge>
    <edge id=":1258_6" function="internal">
        <lane id=":1258_6_0" index="0" speed="5.59" length="9.35" shape="1844.99,764.22 1847.73,763.39 1848.97,762.07 1848.73,760.27 1846.99,758.00"/>
    </edge>
    <edge id=":1258_7" function="internal">
        <lane id=":1258_7_0" index="0" speed="9.80" length="15.85" shape="1844.99,764.22 1848.99,763.00 1852.08,760.87 1854.27,757.83 1855.56,753.87"/>
    </edge>
    <edge id=":1258_8" function="internal">
        <lane id=":1258_8_0" index="0" speed="3.65" length="1.32" shape="1844.99,764.22 1846.19,764.76"/>
    </edge>
    <edge id=":1258_11" function="internal">
        <lane id=":1258_11_0" index="0" speed="3.65" length="3.36" shape="1846.19,764.76 1846.31,764.81 1846.84,765.53 1846.58,766.38 1845.53,767.38"/>
    </edge>
    <edge id=":1266_0" function="internal">
        <lane id=":1266_0_0" index="0" speed="6.18" length="9.71" shape="1780.75,690.81 1778.43,688.98 1776.34,688.43 1774.47,689.15 1772.83,691.15"/>
    </edge>
    <edge id=":1266_1" function="internal">
        <lane id=":1266_1_0" index="0" speed="13.89" length="15.57" shape="1780.75,690.81 1778.09,688.05 1775.41,685.14 1772.84,682.15 1770.45,679.15"/>
    </edge>
    <edge id=":1266_2" function="internal">
        <lane id=":1266_2_0" index="0" speed="7.45" length="4.79" shape="1780.75,690.81 1777.88,686.97"/>
    </edge>
    <edge id=":1266_3" function="internal">
        <lane id=":1266_3_0" index="0" speed="3.65" length="1.44" shape="1780.75,690.81 1780.48,689.39"/>
    </edge>
    <edge id=":1266_16" function="internal">
        <lane id=":1266_16_0" index="0" speed="7.45" length="11.45" shape="1777.88,686.97 1777.39,683.68 1779.27,680.93 1783.53,678.73"/>
    </edge>
    <edge id=":1266_17" function="internal">
        <lane id=":1266_17_0" index="0" speed="3.65" length="3.23" shape="1780.48,689.39 1780.77,688.54 1781.62,688.27 1783.03,688.56"/>
    </edge>
    <edge id=":1266_4" function="internal">
        <lane id=":1266_4_0" index="0" speed="5.77" length="9.16" shape="1784.60,681.75 1782.20,682.99 1781.14,684.54 1781.41,686.39 1783.03,688.56"/>
    </edge>
    <edge id=":1266_5" function="internal">
        <lane id=":1266_5_0" index="0" speed="13.89" length="15.34" shape="1784.60,681.75 1781.12,683.31 1777.89,685.45 1775.06,688.09 1772.83,691.15"/>
    </edge>
    <edge id=":1266_6" function="internal">
        <lane id=":1266_6_0" index="0" speed="9.45" length="15.47" shape="1784.60,681.75 1780.11,682.86 1776.25,682.80 1773.03,681.56 1770.45,679.15"/>
    </edge>
    <edge id=":1266_7" function="internal">
        <lane id=":1266_7_0" index="0" speed="3.65" length="4.67" shape="1784.60,681.75 1783.20,681.39 1782.56,680.77 1782.67,679.88 1783.53,678.73"/>
    </edge>
    <edge id=":1266_8" function="internal">
        <lane id=":1266_8_0" index="0" speed="8.18" length="11.40" shape="1773.01,677.22 1774.83,678.87 1777.19,679.66 1780.09,679.62 1783.53,678.73"/>
    </edge>
    <edge id=":1266_9" function="internal">
        <lane id=":1266_9_0" index="0" speed="13.89" length="15.14" shape="1773.01,677.22 1775.35,680.18 1777.83,683.05 1780.41,685.85 1783.03,688.56"/>
    </edge>
    <edge id=":1266_10" function="internal">
        <lane id=":1266_10_0" index="0" speed="9.70" length="3.51" shape="1773.01,677.22 1774.67,680.31"/>
    </edge>
    <edge id=":1266_11" function="internal">
        <lane id=":1266_11_0" index="0" speed="3.65" length="1.44" shape="1773.01,677.22 1773.09,678.66"/>
    </edge>
    <edge id=":1266_18" function="internal">
        <lane id=":1266_18_0" index="0" speed="9.70" length="11.31" shape="1774.67,680.31 1775.19,683.66 1774.58,687.28 1772.83,691.15"/>
    </edge>
    <edge id=":1266_19" function="internal">
        <lane id=":1266_19_0" index="0" speed="3.65" length="3.23" shape="1773.09,678.66 1772.69,679.46 1771.81,679.63 1770.45,679.15"/>
    </edge>
    <edge id=":1266_12" function="internal">
        <lane id=":1266_12_0" index="0" speed="8.45" length="11.06" shape="1770.06,689.55 1771.43,686.58 1771.95,683.86 1771.62,681.38 1770.45,679.15"/>
    </edge>
    <edge id=":1266_13" function="internal">
        <lane id=":1266_13_0" index="0" speed="13.89" length="17.54" shape="1770.06,689.55 1772.56,686.27 1775.97,683.14 1779.79,680.52 1783.53,678.73"/>
    </edge>
    <edge id=":1266_14" function="internal">
        <lane id=":1266_14_0" index="0" speed="7.75" length="15.96" shape="1770.06,689.55 1772.81,686.15 1775.88,684.84 1779.29,685.65 1783.03,688.56"/>
    </edge>
    <edge id=":1266_15" function="internal">
        <lane id=":1266_15_0" index="0" speed="3.65" length="4.67" shape="1770.06,689.55 1771.36,688.91 1772.25,688.97 1772.74,689.71 1772.83,691.15"/>
    </edge>
    <edge id=":1389_0" function="internal">
        <lane id=":1389_0_0" index="0" speed="3.65" length="4.67" shape="237.30,742.02 236.16,741.14 235.81,740.31 236.27,739.54 237.52,738.82"/>
    </edge>
    <edge id=":1393_0" function="internal">
        <lane id=":1393_0_0" index="0" speed="3.65" length="4.67" shape="374.83,676.62 375.37,675.28 376.08,674.73 376.94,674.96 377.97,675.98"/>
    </edge>
    <edge id=":14_0" function="internal">
        <lane id=":14_0_0" index="0" speed="4.07" length="4.50" shape="743.96,422.15 743.23,420.93 742.51,420.52 741.78,420.92 741.04,422.13"/>
    </edge>
    <edge id=":14_1" function="internal">
        <lane id=":14_1_0" index="0" speed="6.40" length="13.50" shape="738.13,420.80 740.34,417.17 742.53,415.97 744.72,417.20 746.88,420.85"/>
    </edge>
    <edge id=":1409_0" function="internal">
        <lane id=":1409_0_0" index="0" speed="5.83" length="9.13" shape="1265.28,383.69 1263.09,382.16 1261.21,381.92 1259.63,382.97 1258.35,385.31"/>
    </edge>
    <edge id=":1409_1" function="internal">
        <lane id=":1409_1_0" index="0" speed="13.89" length="14.93" shape="1265.28,383.69 1254.32,373.56"/>
    </edge>
    <edge id=":1409_2" function="internal">
        <lane id=":1409_2_0" index="0" speed="3.65" length="1.44" shape="1265.28,383.69 1264.95,382.29"/>
    </edge>
    <edge id=":1409_9" function="internal">
        <lane id=":1409_9_0" index="0" speed="3.65" length="3.23" shape="1264.95,382.29 1265.20,381.43 1266.04,381.12 1267.46,381.35"/>
    </edge>
    <edge id=":1409_3" function="internal">
        <lane id=":1409_3_0" index="0" speed="13.89" length="14.96" shape="1256.47,371.20 1267.46,381.35"/>
    </edge>
    <edge id=":1409_4" function="internal">
        <lane id=":1409_4_0" index="0" speed="9.69" length="3.67" shape="1256.47,371.20 1258.60,373.91 1258.67,374.12"/>
    </edge>
    <edge id=":1409_5" function="internal">
        <lane id=":1409_5_0" index="0" speed="3.65" length="1.44" shape="1256.47,371.20 1256.82,372.60"/>
    </edge>
    <edge id=":1409_10" function="internal">
        <lane id=":1409_10_0" index="0" speed="9.69" length="11.50" shape="1258.67,374.12 1259.62,377.17 1259.54,380.97 1258.35,385.31"/>
    </edge>
    <edge id=":1409_11" function="internal">
        <lane id=":1409_11_0" index="0" speed="3.65" length="3.23" shape="1256.82,372.60 1256.58,373.46 1255.74,373.78 1254.32,373.56"/>
    </edge>
    <edge id=":1409_6" function="internal">
        <lane id=":1409_6_0" index="0" speed="8.44" length="11.33" shape="1255.36,384.17 1256.31,380.82 1256.46,377.93 1255.79,375.51 1254.32,373.56"/>
    </edge>
    <edge id=":1409_7" function="internal">
        <lane id=":1409_7_0" index="0" speed="7.49" length="15.95" shape="1255.36,384.17 1257.59,380.08 1260.36,378.25 1263.65,378.67 1267.46,381.35"/>
    </edge>
    <edge id=":1409_8" function="internal">